
---------- Begin Simulation Statistics ----------
final_tick                               18446744073709551616                       # Number of ticks from beginning of simulation (restored from checkpoints and never reset)
host_inst_rate                                 492899                       # Simulator instruction rate (inst/s)
host_mem_usage                                 301924                       # Number of bytes of host memory used
host_op_rate                                   923536                       # Simulator op (including micro ops) rate (op/s)
host_seconds                                     0.30                       # Real time elapsed on the host
host_tick_rate                           62169215965815218176                       # Simulator tick rate (ticks/s)
sim_freq                                 1000000000000                       # Frequency of simulated ticks
sim_insts                                      146083                       # Number of instructions simulated
sim_ops                                        273870                       # Number of ops (including micro ops) simulated
sim_seconds                              18446744.073710                       # Number of seconds simulated
sim_ticks                                18446744073709551616                       # Number of ticks simulated
system.aes_aes_datapath.acp_latency::samples            0                       # Histogram of ACP transaction total latency
system.aes_aes_datapath.acp_latency::mean          nan                       # Histogram of ACP transaction total latency
system.aes_aes_datapath.acp_latency::gmean          nan                       # Histogram of ACP transaction total latency
system.aes_aes_datapath.acp_latency::stdev          nan                       # Histogram of ACP transaction total latency
system.aes_aes_datapath.acp_latency::0              0                       # Histogram of ACP transaction total latency
system.aes_aes_datapath.acp_latency::1              0                       # Histogram of ACP transaction total latency
system.aes_aes_datapath.acp_latency::2              0                       # Histogram of ACP transaction total latency
system.aes_aes_datapath.acp_latency::3              0                       # Histogram of ACP transaction total latency
system.aes_aes_datapath.acp_latency::4              0                       # Histogram of ACP transaction total latency
system.aes_aes_datapath.acp_latency::5              0                       # Histogram of ACP transaction total latency
system.aes_aes_datapath.acp_latency::6              0                       # Histogram of ACP transaction total latency
system.aes_aes_datapath.acp_latency::7              0                       # Histogram of ACP transaction total latency
system.aes_aes_datapath.acp_latency::8              0                       # Histogram of ACP transaction total latency
system.aes_aes_datapath.acp_latency::9              0                       # Histogram of ACP transaction total latency
system.aes_aes_datapath.acp_latency::10             0                       # Histogram of ACP transaction total latency
system.aes_aes_datapath.acp_latency::11             0                       # Histogram of ACP transaction total latency
system.aes_aes_datapath.acp_latency::12             0                       # Histogram of ACP transaction total latency
system.aes_aes_datapath.acp_latency::13             0                       # Histogram of ACP transaction total latency
system.aes_aes_datapath.acp_latency::14             0                       # Histogram of ACP transaction total latency
system.aes_aes_datapath.acp_latency::15             0                       # Histogram of ACP transaction total latency
system.aes_aes_datapath.acp_latency::16             0                       # Histogram of ACP transaction total latency
system.aes_aes_datapath.acp_latency::17             0                       # Histogram of ACP transaction total latency
system.aes_aes_datapath.acp_latency::18             0                       # Histogram of ACP transaction total latency
system.aes_aes_datapath.acp_latency::19             0                       # Histogram of ACP transaction total latency
system.aes_aes_datapath.acp_latency::20             0                       # Histogram of ACP transaction total latency
system.aes_aes_datapath.acp_latency::21             0                       # Histogram of ACP transaction total latency
system.aes_aes_datapath.acp_latency::22             0                       # Histogram of ACP transaction total latency
system.aes_aes_datapath.acp_latency::23             0                       # Histogram of ACP transaction total latency
system.aes_aes_datapath.acp_latency::24             0                       # Histogram of ACP transaction total latency
system.aes_aes_datapath.acp_latency::25             0                       # Histogram of ACP transaction total latency
system.aes_aes_datapath.acp_latency::26             0                       # Histogram of ACP transaction total latency
system.aes_aes_datapath.acp_latency::27             0                       # Histogram of ACP transaction total latency
system.aes_aes_datapath.acp_latency::28             0                       # Histogram of ACP transaction total latency
system.aes_aes_datapath.acp_latency::29             0                       # Histogram of ACP transaction total latency
system.aes_aes_datapath.acp_latency::total            0                       # Histogram of ACP transaction total latency
system.aes_aes_datapath.acp_queue_time::samples            0                       # Histogram of time ACP request spent in queue
system.aes_aes_datapath.acp_queue_time::mean          nan                       # Histogram of time ACP request spent in queue
system.aes_aes_datapath.acp_queue_time::gmean          nan                       # Histogram of time ACP request spent in queue
system.aes_aes_datapath.acp_queue_time::stdev          nan                       # Histogram of time ACP request spent in queue
system.aes_aes_datapath.acp_queue_time::0            0                       # Histogram of time ACP request spent in queue
system.aes_aes_datapath.acp_queue_time::1            0                       # Histogram of time ACP request spent in queue
system.aes_aes_datapath.acp_queue_time::2            0                       # Histogram of time ACP request spent in queue
system.aes_aes_datapath.acp_queue_time::3            0                       # Histogram of time ACP request spent in queue
system.aes_aes_datapath.acp_queue_time::4            0                       # Histogram of time ACP request spent in queue
system.aes_aes_datapath.acp_queue_time::5            0                       # Histogram of time ACP request spent in queue
system.aes_aes_datapath.acp_queue_time::6            0                       # Histogram of time ACP request spent in queue
system.aes_aes_datapath.acp_queue_time::7            0                       # Histogram of time ACP request spent in queue
system.aes_aes_datapath.acp_queue_time::8            0                       # Histogram of time ACP request spent in queue
system.aes_aes_datapath.acp_queue_time::9            0                       # Histogram of time ACP request spent in queue
system.aes_aes_datapath.acp_queue_time::10            0                       # Histogram of time ACP request spent in queue
system.aes_aes_datapath.acp_queue_time::11            0                       # Histogram of time ACP request spent in queue
system.aes_aes_datapath.acp_queue_time::12            0                       # Histogram of time ACP request spent in queue
system.aes_aes_datapath.acp_queue_time::13            0                       # Histogram of time ACP request spent in queue
system.aes_aes_datapath.acp_queue_time::14            0                       # Histogram of time ACP request spent in queue
system.aes_aes_datapath.acp_queue_time::15            0                       # Histogram of time ACP request spent in queue
system.aes_aes_datapath.acp_queue_time::16            0                       # Histogram of time ACP request spent in queue
system.aes_aes_datapath.acp_queue_time::17            0                       # Histogram of time ACP request spent in queue
system.aes_aes_datapath.acp_queue_time::18            0                       # Histogram of time ACP request spent in queue
system.aes_aes_datapath.acp_queue_time::19            0                       # Histogram of time ACP request spent in queue
system.aes_aes_datapath.acp_queue_time::20            0                       # Histogram of time ACP request spent in queue
system.aes_aes_datapath.acp_queue_time::21            0                       # Histogram of time ACP request spent in queue
system.aes_aes_datapath.acp_queue_time::22            0                       # Histogram of time ACP request spent in queue
system.aes_aes_datapath.acp_queue_time::23            0                       # Histogram of time ACP request spent in queue
system.aes_aes_datapath.acp_queue_time::24            0                       # Histogram of time ACP request spent in queue
system.aes_aes_datapath.acp_queue_time::25            0                       # Histogram of time ACP request spent in queue
system.aes_aes_datapath.acp_queue_time::26            0                       # Histogram of time ACP request spent in queue
system.aes_aes_datapath.acp_queue_time::27            0                       # Histogram of time ACP request spent in queue
system.aes_aes_datapath.acp_queue_time::28            0                       # Histogram of time ACP request spent in queue
system.aes_aes_datapath.acp_queue_time::29            0                       # Histogram of time ACP request spent in queue
system.aes_aes_datapath.acp_queue_time::total            0                       # Histogram of time ACP request spent in queue
system.aes_aes_datapath.cache_queue_reads            0                       # Number of reads to the aes_aes_datapath.cache_queue
system.aes_aes_datapath.cache_queue_writes            0                       # Number of writes to the aes_aes_datapath.cache_queue
system.aes_aes_datapath.dcache_latency::samples            0                       # Histogram of dcache total access latency
system.aes_aes_datapath.dcache_latency::mean          nan                       # Histogram of dcache total access latency
system.aes_aes_datapath.dcache_latency::gmean          nan                       # Histogram of dcache total access latency
system.aes_aes_datapath.dcache_latency::stdev          nan                       # Histogram of dcache total access latency
system.aes_aes_datapath.dcache_latency::0            0                       # Histogram of dcache total access latency
system.aes_aes_datapath.dcache_latency::1            0                       # Histogram of dcache total access latency
system.aes_aes_datapath.dcache_latency::2            0                       # Histogram of dcache total access latency
system.aes_aes_datapath.dcache_latency::3            0                       # Histogram of dcache total access latency
system.aes_aes_datapath.dcache_latency::4            0                       # Histogram of dcache total access latency
system.aes_aes_datapath.dcache_latency::5            0                       # Histogram of dcache total access latency
system.aes_aes_datapath.dcache_latency::6            0                       # Histogram of dcache total access latency
system.aes_aes_datapath.dcache_latency::7            0                       # Histogram of dcache total access latency
system.aes_aes_datapath.dcache_latency::8            0                       # Histogram of dcache total access latency
system.aes_aes_datapath.dcache_latency::9            0                       # Histogram of dcache total access latency
system.aes_aes_datapath.dcache_latency::10            0                       # Histogram of dcache total access latency
system.aes_aes_datapath.dcache_latency::11            0                       # Histogram of dcache total access latency
system.aes_aes_datapath.dcache_latency::12            0                       # Histogram of dcache total access latency
system.aes_aes_datapath.dcache_latency::13            0                       # Histogram of dcache total access latency
system.aes_aes_datapath.dcache_latency::14            0                       # Histogram of dcache total access latency
system.aes_aes_datapath.dcache_latency::15            0                       # Histogram of dcache total access latency
system.aes_aes_datapath.dcache_latency::16            0                       # Histogram of dcache total access latency
system.aes_aes_datapath.dcache_latency::17            0                       # Histogram of dcache total access latency
system.aes_aes_datapath.dcache_latency::18            0                       # Histogram of dcache total access latency
system.aes_aes_datapath.dcache_latency::19            0                       # Histogram of dcache total access latency
system.aes_aes_datapath.dcache_latency::20            0                       # Histogram of dcache total access latency
system.aes_aes_datapath.dcache_latency::21            0                       # Histogram of dcache total access latency
system.aes_aes_datapath.dcache_latency::22            0                       # Histogram of dcache total access latency
system.aes_aes_datapath.dcache_latency::23            0                       # Histogram of dcache total access latency
system.aes_aes_datapath.dcache_latency::24            0                       # Histogram of dcache total access latency
system.aes_aes_datapath.dcache_latency::25            0                       # Histogram of dcache total access latency
system.aes_aes_datapath.dcache_latency::26            0                       # Histogram of dcache total access latency
system.aes_aes_datapath.dcache_latency::27            0                       # Histogram of dcache total access latency
system.aes_aes_datapath.dcache_latency::28            0                       # Histogram of dcache total access latency
system.aes_aes_datapath.dcache_latency::29            0                       # Histogram of dcache total access latency
system.aes_aes_datapath.dcache_latency::total            0                       # Histogram of dcache total access latency
system.aes_aes_datapath.dcache_queue_time::samples            0                       # Histogram of time dcache request spent in queue
system.aes_aes_datapath.dcache_queue_time::mean          nan                       # Histogram of time dcache request spent in queue
system.aes_aes_datapath.dcache_queue_time::gmean          nan                       # Histogram of time dcache request spent in queue
system.aes_aes_datapath.dcache_queue_time::stdev          nan                       # Histogram of time dcache request spent in queue
system.aes_aes_datapath.dcache_queue_time::0            0                       # Histogram of time dcache request spent in queue
system.aes_aes_datapath.dcache_queue_time::1            0                       # Histogram of time dcache request spent in queue
system.aes_aes_datapath.dcache_queue_time::2            0                       # Histogram of time dcache request spent in queue
system.aes_aes_datapath.dcache_queue_time::3            0                       # Histogram of time dcache request spent in queue
system.aes_aes_datapath.dcache_queue_time::4            0                       # Histogram of time dcache request spent in queue
system.aes_aes_datapath.dcache_queue_time::5            0                       # Histogram of time dcache request spent in queue
system.aes_aes_datapath.dcache_queue_time::6            0                       # Histogram of time dcache request spent in queue
system.aes_aes_datapath.dcache_queue_time::7            0                       # Histogram of time dcache request spent in queue
system.aes_aes_datapath.dcache_queue_time::8            0                       # Histogram of time dcache request spent in queue
system.aes_aes_datapath.dcache_queue_time::9            0                       # Histogram of time dcache request spent in queue
system.aes_aes_datapath.dcache_queue_time::10            0                       # Histogram of time dcache request spent in queue
system.aes_aes_datapath.dcache_queue_time::11            0                       # Histogram of time dcache request spent in queue
system.aes_aes_datapath.dcache_queue_time::12            0                       # Histogram of time dcache request spent in queue
system.aes_aes_datapath.dcache_queue_time::13            0                       # Histogram of time dcache request spent in queue
system.aes_aes_datapath.dcache_queue_time::14            0                       # Histogram of time dcache request spent in queue
system.aes_aes_datapath.dcache_queue_time::15            0                       # Histogram of time dcache request spent in queue
system.aes_aes_datapath.dcache_queue_time::16            0                       # Histogram of time dcache request spent in queue
system.aes_aes_datapath.dcache_queue_time::17            0                       # Histogram of time dcache request spent in queue
system.aes_aes_datapath.dcache_queue_time::18            0                       # Histogram of time dcache request spent in queue
system.aes_aes_datapath.dcache_queue_time::19            0                       # Histogram of time dcache request spent in queue
system.aes_aes_datapath.dcache_queue_time::20            0                       # Histogram of time dcache request spent in queue
system.aes_aes_datapath.dcache_queue_time::21            0                       # Histogram of time dcache request spent in queue
system.aes_aes_datapath.dcache_queue_time::22            0                       # Histogram of time dcache request spent in queue
system.aes_aes_datapath.dcache_queue_time::23            0                       # Histogram of time dcache request spent in queue
system.aes_aes_datapath.dcache_queue_time::24            0                       # Histogram of time dcache request spent in queue
system.aes_aes_datapath.dcache_queue_time::25            0                       # Histogram of time dcache request spent in queue
system.aes_aes_datapath.dcache_queue_time::26            0                       # Histogram of time dcache request spent in queue
system.aes_aes_datapath.dcache_queue_time::27            0                       # Histogram of time dcache request spent in queue
system.aes_aes_datapath.dcache_queue_time::28            0                       # Histogram of time dcache request spent in queue
system.aes_aes_datapath.dcache_queue_time::29            0                       # Histogram of time dcache request spent in queue
system.aes_aes_datapath.dcache_queue_time::total            0                       # Histogram of time dcache request spent in queue
system.aes_aes_datapath.dma_setup_cycles            0                       # Total number of cycles spent on setting up DMA transfers.
system.aes_aes_datapath.sim_cycles                  0                       # Total accelerator cycles
system.aes_aes_datapath.tlb.hits                    0                       # TLB hits
system.aes_aes_datapath.tlb.misses                  0                       # TLB misses
system.aes_aes_datapath.tlb.reads                   0                       # TLB reads
system.aes_aes_datapath.tlb.updates                 0                       # TLB updates
system.aes_aes_datapath.total_acp_loads             0                       # Total number of ACP loads
system.aes_aes_datapath.total_acp_stores            0                       # Total number of ACP stores.
system.aes_aes_datapath.total_dcache_loads            0                       # Total number of dcache loads
system.aes_aes_datapath.total_dcache_stores            0                       # Total number of dcache stores.
system.cpu.Branches                             31411                       # Number of branches fetched
system.cpu.committedInsts                      146083                       # Number of instructions committed
system.cpu.committedOps                        273870                       # Number of ops (including micro ops) committed
system.cpu.dtb.rdAccesses                       37125                       # TLB accesses on read requests
system.cpu.dtb.rdMisses                            69                       # TLB misses on read requests
system.cpu.dtb.wrAccesses                       12070                       # TLB accesses on write requests
system.cpu.dtb.wrMisses                            17                       # TLB misses on write requests
system.cpu.idle_fraction                         -inf                       # Percentage of idle cycles
system.cpu.itb.rdAccesses                           0                       # TLB accesses on read requests
system.cpu.itb.rdMisses                             0                       # TLB misses on read requests
system.cpu.itb.wrAccesses                      192811                       # TLB accesses on write requests
system.cpu.itb.wrMisses                           103                       # TLB misses on write requests
system.cpu.not_idle_fraction                      inf                       # Percentage of non-idle cycles
system.cpu.numCycles                           320598                       # number of cpu cycles simulated
system.cpu.numWorkItemsCompleted                    0                       # number of work items this cpu completed
system.cpu.numWorkItemsStarted                      0                       # number of work items this cpu started
system.cpu.num_busy_cycles                        inf                       # Number of busy cycles
system.cpu.num_cc_register_reads               176948                       # number of times the CC registers were read
system.cpu.num_cc_register_writes              111477                       # number of times the CC registers were written
system.cpu.num_conditional_control_insts        28038                       # number of instructions that are conditional controls
system.cpu.num_fp_alu_accesses                   4388                       # Number of float alu accesses
system.cpu.num_fp_insts                          4388                       # number of float instructions
system.cpu.num_fp_register_reads                 6750                       # number of times the floating registers were read
system.cpu.num_fp_register_writes                3338                       # number of times the floating registers were written
system.cpu.num_func_calls                        1501                       # number of times a function call or return occured
system.cpu.num_idle_cycles                       -inf                       # Number of idle cycles
system.cpu.num_int_alu_accesses                269747                       # Number of integer alu accesses
system.cpu.num_int_insts                       269747                       # number of integer instructions
system.cpu.num_int_register_reads              525186                       # number of times the integer registers were read
system.cpu.num_int_register_writes             228682                       # number of times the integer registers were written
system.cpu.num_load_insts                       37122                       # Number of load instructions
system.cpu.num_mem_refs                         49189                       # number of memory refs
system.cpu.num_store_insts                      12067                       # Number of store instructions
system.cpu.num_vec_alu_accesses                     0                       # Number of vector alu accesses
system.cpu.num_vec_insts                            0                       # number of vector instructions
system.cpu.num_vec_register_reads                   0                       # number of times the vector registers were read
system.cpu.num_vec_register_writes                  0                       # number of times the vector registers were written
system.cpu.op_class::No_OpClass                  1638      0.60%      0.60% # Class of executed instruction
system.cpu.op_class::IntAlu                    219054     79.98%     80.58% # Class of executed instruction
system.cpu.op_class::IntMult                       25      0.01%     80.59% # Class of executed instruction
system.cpu.op_class::IntDiv                      1172      0.43%     81.02% # Class of executed instruction
system.cpu.op_class::FloatAdd                      81      0.03%     81.05% # Class of executed instruction
system.cpu.op_class::FloatCmp                       0      0.00%     81.05% # Class of executed instruction
system.cpu.op_class::FloatCvt                      80      0.03%     81.08% # Class of executed instruction
system.cpu.op_class::FloatMult                      0      0.00%     81.08% # Class of executed instruction
system.cpu.op_class::FloatMultAcc                   0      0.00%     81.08% # Class of executed instruction
system.cpu.op_class::FloatDiv                       0      0.00%     81.08% # Class of executed instruction
system.cpu.op_class::FloatMisc                      0      0.00%     81.08% # Class of executed instruction
system.cpu.op_class::FloatSqrt                      0      0.00%     81.08% # Class of executed instruction
system.cpu.op_class::SimdAdd                      354      0.13%     81.21% # Class of executed instruction
system.cpu.op_class::SimdAddAcc                     0      0.00%     81.21% # Class of executed instruction
system.cpu.op_class::SimdAlu                      602      0.22%     81.43% # Class of executed instruction
system.cpu.op_class::SimdCmp                        0      0.00%     81.43% # Class of executed instruction
system.cpu.op_class::SimdCvt                      840      0.31%     81.73% # Class of executed instruction
system.cpu.op_class::SimdMisc                     626      0.23%     81.96% # Class of executed instruction
system.cpu.op_class::SimdMult                       0      0.00%     81.96% # Class of executed instruction
system.cpu.op_class::SimdMultAcc                    0      0.00%     81.96% # Class of executed instruction
system.cpu.op_class::SimdShift                    209      0.08%     82.04% # Class of executed instruction
system.cpu.op_class::SimdShiftAcc                   0      0.00%     82.04% # Class of executed instruction
system.cpu.op_class::SimdDiv                        0      0.00%     82.04% # Class of executed instruction
system.cpu.op_class::SimdSqrt                       0      0.00%     82.04% # Class of executed instruction
system.cpu.op_class::SimdFloatAdd                   0      0.00%     82.04% # Class of executed instruction
system.cpu.op_class::SimdFloatAlu                   0      0.00%     82.04% # Class of executed instruction
system.cpu.op_class::SimdFloatCmp                   0      0.00%     82.04% # Class of executed instruction
system.cpu.op_class::SimdFloatCvt                   0      0.00%     82.04% # Class of executed instruction
system.cpu.op_class::SimdFloatDiv                   0      0.00%     82.04% # Class of executed instruction
system.cpu.op_class::SimdFloatMisc                  0      0.00%     82.04% # Class of executed instruction
system.cpu.op_class::SimdFloatMult                  0      0.00%     82.04% # Class of executed instruction
system.cpu.op_class::SimdFloatMultAcc               0      0.00%     82.04% # Class of executed instruction
system.cpu.op_class::SimdFloatSqrt                  0      0.00%     82.04% # Class of executed instruction
system.cpu.op_class::SimdReduceAdd                  0      0.00%     82.04% # Class of executed instruction
system.cpu.op_class::SimdReduceAlu                  0      0.00%     82.04% # Class of executed instruction
system.cpu.op_class::SimdReduceCmp                  0      0.00%     82.04% # Class of executed instruction
system.cpu.op_class::SimdFloatReduceAdd             0      0.00%     82.04% # Class of executed instruction
system.cpu.op_class::SimdFloatReduceCmp             0      0.00%     82.04% # Class of executed instruction
system.cpu.op_class::SimdAes                        0      0.00%     82.04% # Class of executed instruction
system.cpu.op_class::SimdAesMix                     0      0.00%     82.04% # Class of executed instruction
system.cpu.op_class::SimdSha1Hash                   0      0.00%     82.04% # Class of executed instruction
system.cpu.op_class::SimdSha1Hash2                  0      0.00%     82.04% # Class of executed instruction
system.cpu.op_class::SimdSha256Hash                 0      0.00%     82.04% # Class of executed instruction
system.cpu.op_class::SimdSha256Hash2                0      0.00%     82.04% # Class of executed instruction
system.cpu.op_class::SimdShaSigma2                  0      0.00%     82.04% # Class of executed instruction
system.cpu.op_class::SimdShaSigma3                  0      0.00%     82.04% # Class of executed instruction
system.cpu.op_class::SimdPredAlu                    0      0.00%     82.04% # Class of executed instruction
system.cpu.op_class::MemRead                    36130     13.19%     95.23% # Class of executed instruction
system.cpu.op_class::MemWrite                   11555      4.22%     99.45% # Class of executed instruction
system.cpu.op_class::FloatMemRead                 992      0.36%     99.81% # Class of executed instruction
system.cpu.op_class::FloatMemWrite                512      0.19%    100.00% # Class of executed instruction
system.cpu.op_class::IprAccess                      0      0.00%    100.00% # Class of executed instruction
system.cpu.op_class::InstPrefetch                   0      0.00%    100.00% # Class of executed instruction
system.cpu.op_class::total                     273870                       # Class of executed instruction
system.cpu.workload.numSyscalls                    36                       # Number of system calls
system.kmp_kmp_datapath.acp_latency::samples            0                       # Histogram of ACP transaction total latency
system.kmp_kmp_datapath.acp_latency::mean          nan                       # Histogram of ACP transaction total latency
system.kmp_kmp_datapath.acp_latency::gmean          nan                       # Histogram of ACP transaction total latency
system.kmp_kmp_datapath.acp_latency::stdev          nan                       # Histogram of ACP transaction total latency
system.kmp_kmp_datapath.acp_latency::0              0                       # Histogram of ACP transaction total latency
system.kmp_kmp_datapath.acp_latency::1              0                       # Histogram of ACP transaction total latency
system.kmp_kmp_datapath.acp_latency::2              0                       # Histogram of ACP transaction total latency
system.kmp_kmp_datapath.acp_latency::3              0                       # Histogram of ACP transaction total latency
system.kmp_kmp_datapath.acp_latency::4              0                       # Histogram of ACP transaction total latency
system.kmp_kmp_datapath.acp_latency::5              0                       # Histogram of ACP transaction total latency
system.kmp_kmp_datapath.acp_latency::6              0                       # Histogram of ACP transaction total latency
system.kmp_kmp_datapath.acp_latency::7              0                       # Histogram of ACP transaction total latency
system.kmp_kmp_datapath.acp_latency::8              0                       # Histogram of ACP transaction total latency
system.kmp_kmp_datapath.acp_latency::9              0                       # Histogram of ACP transaction total latency
system.kmp_kmp_datapath.acp_latency::10             0                       # Histogram of ACP transaction total latency
system.kmp_kmp_datapath.acp_latency::11             0                       # Histogram of ACP transaction total latency
system.kmp_kmp_datapath.acp_latency::12             0                       # Histogram of ACP transaction total latency
system.kmp_kmp_datapath.acp_latency::13             0                       # Histogram of ACP transaction total latency
system.kmp_kmp_datapath.acp_latency::14             0                       # Histogram of ACP transaction total latency
system.kmp_kmp_datapath.acp_latency::15             0                       # Histogram of ACP transaction total latency
system.kmp_kmp_datapath.acp_latency::16             0                       # Histogram of ACP transaction total latency
system.kmp_kmp_datapath.acp_latency::17             0                       # Histogram of ACP transaction total latency
system.kmp_kmp_datapath.acp_latency::18             0                       # Histogram of ACP transaction total latency
system.kmp_kmp_datapath.acp_latency::19             0                       # Histogram of ACP transaction total latency
system.kmp_kmp_datapath.acp_latency::20             0                       # Histogram of ACP transaction total latency
system.kmp_kmp_datapath.acp_latency::21             0                       # Histogram of ACP transaction total latency
system.kmp_kmp_datapath.acp_latency::22             0                       # Histogram of ACP transaction total latency
system.kmp_kmp_datapath.acp_latency::23             0                       # Histogram of ACP transaction total latency
system.kmp_kmp_datapath.acp_latency::24             0                       # Histogram of ACP transaction total latency
system.kmp_kmp_datapath.acp_latency::25             0                       # Histogram of ACP transaction total latency
system.kmp_kmp_datapath.acp_latency::26             0                       # Histogram of ACP transaction total latency
system.kmp_kmp_datapath.acp_latency::27             0                       # Histogram of ACP transaction total latency
system.kmp_kmp_datapath.acp_latency::28             0                       # Histogram of ACP transaction total latency
system.kmp_kmp_datapath.acp_latency::29             0                       # Histogram of ACP transaction total latency
system.kmp_kmp_datapath.acp_latency::total            0                       # Histogram of ACP transaction total latency
system.kmp_kmp_datapath.acp_queue_time::samples            0                       # Histogram of time ACP request spent in queue
system.kmp_kmp_datapath.acp_queue_time::mean          nan                       # Histogram of time ACP request spent in queue
system.kmp_kmp_datapath.acp_queue_time::gmean          nan                       # Histogram of time ACP request spent in queue
system.kmp_kmp_datapath.acp_queue_time::stdev          nan                       # Histogram of time ACP request spent in queue
system.kmp_kmp_datapath.acp_queue_time::0            0                       # Histogram of time ACP request spent in queue
system.kmp_kmp_datapath.acp_queue_time::1            0                       # Histogram of time ACP request spent in queue
system.kmp_kmp_datapath.acp_queue_time::2            0                       # Histogram of time ACP request spent in queue
system.kmp_kmp_datapath.acp_queue_time::3            0                       # Histogram of time ACP request spent in queue
system.kmp_kmp_datapath.acp_queue_time::4            0                       # Histogram of time ACP request spent in queue
system.kmp_kmp_datapath.acp_queue_time::5            0                       # Histogram of time ACP request spent in queue
system.kmp_kmp_datapath.acp_queue_time::6            0                       # Histogram of time ACP request spent in queue
system.kmp_kmp_datapath.acp_queue_time::7            0                       # Histogram of time ACP request spent in queue
system.kmp_kmp_datapath.acp_queue_time::8            0                       # Histogram of time ACP request spent in queue
system.kmp_kmp_datapath.acp_queue_time::9            0                       # Histogram of time ACP request spent in queue
system.kmp_kmp_datapath.acp_queue_time::10            0                       # Histogram of time ACP request spent in queue
system.kmp_kmp_datapath.acp_queue_time::11            0                       # Histogram of time ACP request spent in queue
system.kmp_kmp_datapath.acp_queue_time::12            0                       # Histogram of time ACP request spent in queue
system.kmp_kmp_datapath.acp_queue_time::13            0                       # Histogram of time ACP request spent in queue
system.kmp_kmp_datapath.acp_queue_time::14            0                       # Histogram of time ACP request spent in queue
system.kmp_kmp_datapath.acp_queue_time::15            0                       # Histogram of time ACP request spent in queue
system.kmp_kmp_datapath.acp_queue_time::16            0                       # Histogram of time ACP request spent in queue
system.kmp_kmp_datapath.acp_queue_time::17            0                       # Histogram of time ACP request spent in queue
system.kmp_kmp_datapath.acp_queue_time::18            0                       # Histogram of time ACP request spent in queue
system.kmp_kmp_datapath.acp_queue_time::19            0                       # Histogram of time ACP request spent in queue
system.kmp_kmp_datapath.acp_queue_time::20            0                       # Histogram of time ACP request spent in queue
system.kmp_kmp_datapath.acp_queue_time::21            0                       # Histogram of time ACP request spent in queue
system.kmp_kmp_datapath.acp_queue_time::22            0                       # Histogram of time ACP request spent in queue
system.kmp_kmp_datapath.acp_queue_time::23            0                       # Histogram of time ACP request spent in queue
system.kmp_kmp_datapath.acp_queue_time::24            0                       # Histogram of time ACP request spent in queue
system.kmp_kmp_datapath.acp_queue_time::25            0                       # Histogram of time ACP request spent in queue
system.kmp_kmp_datapath.acp_queue_time::26            0                       # Histogram of time ACP request spent in queue
system.kmp_kmp_datapath.acp_queue_time::27            0                       # Histogram of time ACP request spent in queue
system.kmp_kmp_datapath.acp_queue_time::28            0                       # Histogram of time ACP request spent in queue
system.kmp_kmp_datapath.acp_queue_time::29            0                       # Histogram of time ACP request spent in queue
system.kmp_kmp_datapath.acp_queue_time::total            0                       # Histogram of time ACP request spent in queue
system.kmp_kmp_datapath.cache_queue_reads            0                       # Number of reads to the kmp_kmp_datapath.cache_queue
system.kmp_kmp_datapath.cache_queue_writes            0                       # Number of writes to the kmp_kmp_datapath.cache_queue
system.kmp_kmp_datapath.dcache_latency::samples            0                       # Histogram of dcache total access latency
system.kmp_kmp_datapath.dcache_latency::mean          nan                       # Histogram of dcache total access latency
system.kmp_kmp_datapath.dcache_latency::gmean          nan                       # Histogram of dcache total access latency
system.kmp_kmp_datapath.dcache_latency::stdev          nan                       # Histogram of dcache total access latency
system.kmp_kmp_datapath.dcache_latency::0            0                       # Histogram of dcache total access latency
system.kmp_kmp_datapath.dcache_latency::1            0                       # Histogram of dcache total access latency
system.kmp_kmp_datapath.dcache_latency::2            0                       # Histogram of dcache total access latency
system.kmp_kmp_datapath.dcache_latency::3            0                       # Histogram of dcache total access latency
system.kmp_kmp_datapath.dcache_latency::4            0                       # Histogram of dcache total access latency
system.kmp_kmp_datapath.dcache_latency::5            0                       # Histogram of dcache total access latency
system.kmp_kmp_datapath.dcache_latency::6            0                       # Histogram of dcache total access latency
system.kmp_kmp_datapath.dcache_latency::7            0                       # Histogram of dcache total access latency
system.kmp_kmp_datapath.dcache_latency::8            0                       # Histogram of dcache total access latency
system.kmp_kmp_datapath.dcache_latency::9            0                       # Histogram of dcache total access latency
system.kmp_kmp_datapath.dcache_latency::10            0                       # Histogram of dcache total access latency
system.kmp_kmp_datapath.dcache_latency::11            0                       # Histogram of dcache total access latency
system.kmp_kmp_datapath.dcache_latency::12            0                       # Histogram of dcache total access latency
system.kmp_kmp_datapath.dcache_latency::13            0                       # Histogram of dcache total access latency
system.kmp_kmp_datapath.dcache_latency::14            0                       # Histogram of dcache total access latency
system.kmp_kmp_datapath.dcache_latency::15            0                       # Histogram of dcache total access latency
system.kmp_kmp_datapath.dcache_latency::16            0                       # Histogram of dcache total access latency
system.kmp_kmp_datapath.dcache_latency::17            0                       # Histogram of dcache total access latency
system.kmp_kmp_datapath.dcache_latency::18            0                       # Histogram of dcache total access latency
system.kmp_kmp_datapath.dcache_latency::19            0                       # Histogram of dcache total access latency
system.kmp_kmp_datapath.dcache_latency::20            0                       # Histogram of dcache total access latency
system.kmp_kmp_datapath.dcache_latency::21            0                       # Histogram of dcache total access latency
system.kmp_kmp_datapath.dcache_latency::22            0                       # Histogram of dcache total access latency
system.kmp_kmp_datapath.dcache_latency::23            0                       # Histogram of dcache total access latency
system.kmp_kmp_datapath.dcache_latency::24            0                       # Histogram of dcache total access latency
system.kmp_kmp_datapath.dcache_latency::25            0                       # Histogram of dcache total access latency
system.kmp_kmp_datapath.dcache_latency::26            0                       # Histogram of dcache total access latency
system.kmp_kmp_datapath.dcache_latency::27            0                       # Histogram of dcache total access latency
system.kmp_kmp_datapath.dcache_latency::28            0                       # Histogram of dcache total access latency
system.kmp_kmp_datapath.dcache_latency::29            0                       # Histogram of dcache total access latency
system.kmp_kmp_datapath.dcache_latency::total            0                       # Histogram of dcache total access latency
system.kmp_kmp_datapath.dcache_queue_time::samples            0                       # Histogram of time dcache request spent in queue
system.kmp_kmp_datapath.dcache_queue_time::mean          nan                       # Histogram of time dcache request spent in queue
system.kmp_kmp_datapath.dcache_queue_time::gmean          nan                       # Histogram of time dcache request spent in queue
system.kmp_kmp_datapath.dcache_queue_time::stdev          nan                       # Histogram of time dcache request spent in queue
system.kmp_kmp_datapath.dcache_queue_time::0            0                       # Histogram of time dcache request spent in queue
system.kmp_kmp_datapath.dcache_queue_time::1            0                       # Histogram of time dcache request spent in queue
system.kmp_kmp_datapath.dcache_queue_time::2            0                       # Histogram of time dcache request spent in queue
system.kmp_kmp_datapath.dcache_queue_time::3            0                       # Histogram of time dcache request spent in queue
system.kmp_kmp_datapath.dcache_queue_time::4            0                       # Histogram of time dcache request spent in queue
system.kmp_kmp_datapath.dcache_queue_time::5            0                       # Histogram of time dcache request spent in queue
system.kmp_kmp_datapath.dcache_queue_time::6            0                       # Histogram of time dcache request spent in queue
system.kmp_kmp_datapath.dcache_queue_time::7            0                       # Histogram of time dcache request spent in queue
system.kmp_kmp_datapath.dcache_queue_time::8            0                       # Histogram of time dcache request spent in queue
system.kmp_kmp_datapath.dcache_queue_time::9            0                       # Histogram of time dcache request spent in queue
system.kmp_kmp_datapath.dcache_queue_time::10            0                       # Histogram of time dcache request spent in queue
system.kmp_kmp_datapath.dcache_queue_time::11            0                       # Histogram of time dcache request spent in queue
system.kmp_kmp_datapath.dcache_queue_time::12            0                       # Histogram of time dcache request spent in queue
system.kmp_kmp_datapath.dcache_queue_time::13            0                       # Histogram of time dcache request spent in queue
system.kmp_kmp_datapath.dcache_queue_time::14            0                       # Histogram of time dcache request spent in queue
system.kmp_kmp_datapath.dcache_queue_time::15            0                       # Histogram of time dcache request spent in queue
system.kmp_kmp_datapath.dcache_queue_time::16            0                       # Histogram of time dcache request spent in queue
system.kmp_kmp_datapath.dcache_queue_time::17            0                       # Histogram of time dcache request spent in queue
system.kmp_kmp_datapath.dcache_queue_time::18            0                       # Histogram of time dcache request spent in queue
system.kmp_kmp_datapath.dcache_queue_time::19            0                       # Histogram of time dcache request spent in queue
system.kmp_kmp_datapath.dcache_queue_time::20            0                       # Histogram of time dcache request spent in queue
system.kmp_kmp_datapath.dcache_queue_time::21            0                       # Histogram of time dcache request spent in queue
system.kmp_kmp_datapath.dcache_queue_time::22            0                       # Histogram of time dcache request spent in queue
system.kmp_kmp_datapath.dcache_queue_time::23            0                       # Histogram of time dcache request spent in queue
system.kmp_kmp_datapath.dcache_queue_time::24            0                       # Histogram of time dcache request spent in queue
system.kmp_kmp_datapath.dcache_queue_time::25            0                       # Histogram of time dcache request spent in queue
system.kmp_kmp_datapath.dcache_queue_time::26            0                       # Histogram of time dcache request spent in queue
system.kmp_kmp_datapath.dcache_queue_time::27            0                       # Histogram of time dcache request spent in queue
system.kmp_kmp_datapath.dcache_queue_time::28            0                       # Histogram of time dcache request spent in queue
system.kmp_kmp_datapath.dcache_queue_time::29            0                       # Histogram of time dcache request spent in queue
system.kmp_kmp_datapath.dcache_queue_time::total            0                       # Histogram of time dcache request spent in queue
system.kmp_kmp_datapath.dma_setup_cycles            0                       # Total number of cycles spent on setting up DMA transfers.
system.kmp_kmp_datapath.sim_cycles                  0                       # Total accelerator cycles
system.kmp_kmp_datapath.tlb.hits                    0                       # TLB hits
system.kmp_kmp_datapath.tlb.misses                  0                       # TLB misses
system.kmp_kmp_datapath.tlb.reads                   0                       # TLB reads
system.kmp_kmp_datapath.tlb.updates                 0                       # TLB updates
system.kmp_kmp_datapath.total_acp_loads             0                       # Total number of ACP loads
system.kmp_kmp_datapath.total_acp_stores            0                       # Total number of ACP stores.
system.kmp_kmp_datapath.total_dcache_loads            0                       # Total number of dcache loads
system.kmp_kmp_datapath.total_dcache_stores            0                       # Total number of dcache stores.
system.membus.snoop_filter.hit_multi_requests            0                       # Number of requests hitting in the snoop filter with multiple (>1) holders of the requested data.
system.membus.snoop_filter.hit_multi_snoops            0                       # Number of snoops hitting in the snoop filter with multiple (>1) holders of the requested data.
system.membus.snoop_filter.hit_single_requests           54                       # Number of requests hitting in the snoop filter with a single holder of the requested data.
system.membus.snoop_filter.hit_single_snoops            0                       # Number of snoops hitting in the snoop filter with a single holder of the requested data.
system.membus.snoop_filter.tot_requests          3489                       # Total number of requests made to the snoop filter.
system.membus.snoop_filter.tot_snoops               0                       # Total number of snoops made to the snoop filter.
system.tol2bus.snoop_filter.hit_multi_requests            2                       # Number of requests hitting in the snoop filter with multiple (>1) holders of the requested data.
system.tol2bus.snoop_filter.hit_multi_snoops            1                       # Number of snoops hitting in the snoop filter with multiple (>1) holders of the requested data.
system.tol2bus.snoop_filter.hit_single_requests          709                       # Number of requests hitting in the snoop filter with a single holder of the requested data.
system.tol2bus.snoop_filter.hit_single_snoops          111                       # Number of snoops hitting in the snoop filter with a single holder of the requested data.
system.tol2bus.snoop_filter.tot_requests         4208                       # Total number of requests made to the snoop filter.
system.tol2bus.snoop_filter.tot_snoops            112                       # Total number of snoops made to the snoop filter.
system.membus.pwrStateResidencyTicks::UNDEFINED 18446744073709551616                       # Cumulative time (in ticks) in various power states
system.membus.trans_dist::ReadResp               2937                       # Transaction distribution
system.membus.trans_dist::WritebackDirty           14                       # Transaction distribution
system.membus.trans_dist::CleanEvict               40                       # Transaction distribution
system.membus.trans_dist::ReadExReq               498                       # Transaction distribution
system.membus.trans_dist::ReadExResp              498                       # Transaction distribution
system.membus.trans_dist::ReadSharedReq          2937                       # Transaction distribution
system.membus.pkt_count_system.l2.mem_side::system.mem_ctrls.port         6924                       # Packet count per connected master and slave (bytes)
system.membus.pkt_count_system.l2.mem_side::total         6924                       # Packet count per connected master and slave (bytes)
system.membus.pkt_count::total                   6924                       # Packet count per connected master and slave (bytes)
system.membus.pkt_size_system.l2.mem_side::system.mem_ctrls.port       220736                       # Cumulative packet size per connected master and slave (bytes)
system.membus.pkt_size_system.l2.mem_side::total       220736                       # Cumulative packet size per connected master and slave (bytes)
system.membus.pkt_size::total                  220736                       # Cumulative packet size per connected master and slave (bytes)
system.membus.snoops                                0                       # Total snoops (count)
system.membus.snoopTraffic                          0                       # Total snoop traffic (bytes)
system.membus.snoop_fanout::samples              3435                       # Request fanout histogram
system.membus.snoop_fanout::mean                    0                       # Request fanout histogram
system.membus.snoop_fanout::stdev                   0                       # Request fanout histogram
system.membus.snoop_fanout::underflows              0      0.00%      0.00% # Request fanout histogram
system.membus.snoop_fanout::0                    3435    100.00%    100.00% # Request fanout histogram
system.membus.snoop_fanout::1                       0      0.00%    100.00% # Request fanout histogram
system.membus.snoop_fanout::2                       0      0.00%    100.00% # Request fanout histogram
system.membus.snoop_fanout::3                       0      0.00%    100.00% # Request fanout histogram
system.membus.snoop_fanout::4                       0      0.00%    100.00% # Request fanout histogram
system.membus.snoop_fanout::5                       0      0.00%    100.00% # Request fanout histogram
system.membus.snoop_fanout::overflows               0      0.00%    100.00% # Request fanout histogram
system.membus.snoop_fanout::min_value               0                       # Request fanout histogram
system.membus.snoop_fanout::max_value               0                       # Request fanout histogram
system.membus.snoop_fanout::total                3435                       # Request fanout histogram
system.tol2bus.pwrStateResidencyTicks::UNDEFINED 18446744073709551616                       # Cumulative time (in ticks) in various power states
system.tol2bus.trans_dist::ReadResp              2981                       # Transaction distribution
system.tol2bus.trans_dist::WritebackDirty          266                       # Transaction distribution
system.tol2bus.trans_dist::CleanEvict             443                       # Transaction distribution
system.tol2bus.trans_dist::ReadExReq              518                       # Transaction distribution
system.tol2bus.trans_dist::ReadExResp             518                       # Transaction distribution
system.tol2bus.trans_dist::ReadSharedReq         2981                       # Transaction distribution
system.tol2bus.pkt_count_system.cpu.icache.mem_side::system.l2.cpu_side         2078                       # Packet count per connected master and slave (bytes)
system.tol2bus.pkt_count_system.cpu.dcache.mem_side::system.l2.cpu_side         5629                       # Packet count per connected master and slave (bytes)
system.tol2bus.pkt_count::total                  7707                       # Packet count per connected master and slave (bytes)
system.tol2bus.pkt_size_system.cpu.icache.mem_side::system.l2.cpu_side        64896                       # Cumulative packet size per connected master and slave (bytes)
system.tol2bus.pkt_size_system.cpu.dcache.mem_side::system.l2.cpu_side       176064                       # Cumulative packet size per connected master and slave (bytes)
system.tol2bus.pkt_size::total                 240960                       # Cumulative packet size per connected master and slave (bytes)
system.tol2bus.snoops                             137                       # Total snoops (count)
system.tol2bus.snoopTraffic                       896                       # Total snoop traffic (bytes)
system.tol2bus.snoop_fanout::samples             3636                       # Request fanout histogram
system.tol2bus.snoop_fanout::mean            0.031628                       # Request fanout histogram
system.tol2bus.snoop_fanout::stdev           0.176597                       # Request fanout histogram
system.tol2bus.snoop_fanout::underflows             0      0.00%      0.00% # Request fanout histogram
system.tol2bus.snoop_fanout::0                   3522     96.86%     96.86% # Request fanout histogram
system.tol2bus.snoop_fanout::1                    113      3.11%     99.97% # Request fanout histogram
system.tol2bus.snoop_fanout::2                      1      0.03%    100.00% # Request fanout histogram
system.tol2bus.snoop_fanout::3                      0      0.00%    100.00% # Request fanout histogram
system.tol2bus.snoop_fanout::4                      0      0.00%    100.00% # Request fanout histogram
system.tol2bus.snoop_fanout::overflows              0      0.00%    100.00% # Request fanout histogram
system.tol2bus.snoop_fanout::min_value              0                       # Request fanout histogram
system.tol2bus.snoop_fanout::max_value              2                       # Request fanout histogram
system.tol2bus.snoop_fanout::total               3636                       # Request fanout histogram
system.voltage_domain.voltage                       1                       # Voltage in Volts
system.aes_aes_datapath.pwrStateResidencyTicks::UNDEFINED 18446744073709551616                       # Cumulative time (in ticks) in various power states
system.aes_aes_datapath.cache.pwrStateResidencyTicks::UNDEFINED 18446744073709551616                       # Cumulative time (in ticks) in various power states
system.aes_aes_datapath.cache.blocked_cycles::no_mshrs            0                       # number of cycles access was blocked
system.aes_aes_datapath.cache.blocked_cycles::no_targets            0                       # number of cycles access was blocked
system.aes_aes_datapath.cache.blocked::no_mshrs            0                       # number of cycles access was blocked
system.aes_aes_datapath.cache.blocked::no_targets            0                       # number of cycles access was blocked
system.aes_aes_datapath.cache.avg_blocked_cycles::no_mshrs          nan                       # average number of cycles each access was blocked
system.aes_aes_datapath.cache.avg_blocked_cycles::no_targets          nan                       # average number of cycles each access was blocked
system.aes_aes_datapath.cache.replacements            0                       # number of replacements
system.aes_aes_datapath.cache.tags.pwrStateResidencyTicks::UNDEFINED 18446744073709551616                       # Cumulative time (in ticks) in various power states
system.aes_aes_datapath.cache.tags.tagsinuse          nan                       # Cycle average of tags in use
system.aes_aes_datapath.cache.tags.total_refs            0                       # Total number of references to valid blocks.
system.aes_aes_datapath.cache.tags.sampled_refs            0                       # Sample count of references to valid blocks.
system.aes_aes_datapath.cache.tags.avg_refs          nan                       # Average number of references to valid blocks.
system.aes_aes_datapath.cache.tags.warmup_cycle            0                       # Cycle when the warmup percentage was hit.
system.aes_aes_datapath.cache.tags.occ_percent::.writebacks          nan                       # Average percentage of cache occupancy
system.aes_aes_datapath.cache.tags.occ_percent::.functional          nan                       # Average percentage of cache occupancy
system.aes_aes_datapath.cache.tags.occ_percent::.interrupt          nan                       # Average percentage of cache occupancy
system.aes_aes_datapath.cache.tags.occ_percent::.aes_aes_datapath          nan                       # Average percentage of cache occupancy
system.aes_aes_datapath.cache.tags.occ_percent::.aes_aes_datapath.system.aes_aes_datapath.spad          nan                       # Average percentage of cache occupancy
system.aes_aes_datapath.cache.tags.occ_percent::.aes_aes_datapath.system.aes_aes_datapath.cache          nan                       # Average percentage of cache occupancy
system.aes_aes_datapath.cache.tags.occ_percent::.aes_aes_datapath.system.aes_aes_datapath.acp          nan                       # Average percentage of cache occupancy
system.aes_aes_datapath.cache.tags.occ_percent::.cpu.dtb.walker          nan                       # Average percentage of cache occupancy
system.aes_aes_datapath.cache.tags.occ_percent::.cpu.itb.walker          nan                       # Average percentage of cache occupancy
system.aes_aes_datapath.cache.tags.occ_percent::.cpu.inst          nan                       # Average percentage of cache occupancy
system.aes_aes_datapath.cache.tags.occ_percent::.cpu.data          nan                       # Average percentage of cache occupancy
system.aes_aes_datapath.cache.tags.occ_percent::.kmp_kmp_datapath          nan                       # Average percentage of cache occupancy
system.aes_aes_datapath.cache.tags.occ_percent::.kmp_kmp_datapath.system.kmp_kmp_datapath.spad          nan                       # Average percentage of cache occupancy
system.aes_aes_datapath.cache.tags.occ_percent::.kmp_kmp_datapath.system.kmp_kmp_datapath.cache          nan                       # Average percentage of cache occupancy
system.aes_aes_datapath.cache.tags.occ_percent::.kmp_kmp_datapath.system.kmp_kmp_datapath.acp          nan                       # Average percentage of cache occupancy
system.aes_aes_datapath.cache.tags.occ_percent::total          nan                       # Average percentage of cache occupancy
system.aes_aes_datapath.cache.tags.tag_accesses            0                       # Number of tag accesses
system.aes_aes_datapath.cache.tags.data_accesses            0                       # Number of data accesses
system.aes_aes_datapath.clk_domain.clock         1000                       # Clock period in ticks
system.clk_domain.clock                          1000                       # Clock period in ticks
system.l2.pwrStateResidencyTicks::UNDEFINED 18446744073709551616                       # Cumulative time (in ticks) in various power states
system.l2.demand_hits::.cpu.inst                    2                       # number of demand (read+write) hits
system.l2.demand_hits::.cpu.data                   62                       # number of demand (read+write) hits
system.l2.demand_hits::total                       64                       # number of demand (read+write) hits
system.l2.overall_hits::.cpu.inst                   2                       # number of overall hits
system.l2.overall_hits::.cpu.data                  62                       # number of overall hits
system.l2.overall_hits::total                      64                       # number of overall hits
system.l2.demand_misses::.cpu.inst               1012                       # number of demand (read+write) misses
system.l2.demand_misses::.cpu.data               2423                       # number of demand (read+write) misses
system.l2.demand_misses::total                   3435                       # number of demand (read+write) misses
system.l2.overall_misses::.cpu.inst              1012                       # number of overall misses
system.l2.overall_misses::.cpu.data              2423                       # number of overall misses
system.l2.overall_misses::total                  3435                       # number of overall misses
system.l2.demand_accesses::.cpu.inst             1014                       # number of demand (read+write) accesses
system.l2.demand_accesses::.cpu.data             2485                       # number of demand (read+write) accesses
system.l2.demand_accesses::total                 3499                       # number of demand (read+write) accesses
system.l2.overall_accesses::.cpu.inst            1014                       # number of overall (read+write) accesses
system.l2.overall_accesses::.cpu.data            2485                       # number of overall (read+write) accesses
system.l2.overall_accesses::total                3499                       # number of overall (read+write) accesses
system.l2.demand_miss_rate::.cpu.inst        0.998028                       # miss rate for demand accesses
system.l2.demand_miss_rate::.cpu.data        0.975050                       # miss rate for demand accesses
system.l2.demand_miss_rate::total            0.981709                       # miss rate for demand accesses
system.l2.overall_miss_rate::.cpu.inst       0.998028                       # miss rate for overall accesses
system.l2.overall_miss_rate::.cpu.data       0.975050                       # miss rate for overall accesses
system.l2.overall_miss_rate::total           0.981709                       # miss rate for overall accesses
system.l2.blocked_cycles::no_mshrs                  0                       # number of cycles access was blocked
system.l2.blocked_cycles::no_targets                0                       # number of cycles access was blocked
system.l2.blocked::no_mshrs                         0                       # number of cycles access was blocked
system.l2.blocked::no_targets                       0                       # number of cycles access was blocked
system.l2.avg_blocked_cycles::no_mshrs            nan                       # average number of cycles each access was blocked
system.l2.avg_blocked_cycles::no_targets          nan                       # average number of cycles each access was blocked
system.l2.writebacks::.writebacks                  14                       # number of writebacks
system.l2.writebacks::total                        14                       # number of writebacks
system.l2.replacements                            137                       # number of replacements
system.l2.WritebackDirty_hits::.writebacks          266                       # number of WritebackDirty hits
system.l2.WritebackDirty_hits::total              266                       # number of WritebackDirty hits
system.l2.WritebackDirty_accesses::.writebacks          266                       # number of WritebackDirty accesses(hits+misses)
system.l2.WritebackDirty_accesses::total          266                       # number of WritebackDirty accesses(hits+misses)
system.l2.ReadExReq_hits::.cpu.data                20                       # number of ReadExReq hits
system.l2.ReadExReq_hits::total                    20                       # number of ReadExReq hits
system.l2.ReadExReq_misses::.cpu.data             498                       # number of ReadExReq misses
system.l2.ReadExReq_misses::total                 498                       # number of ReadExReq misses
system.l2.ReadExReq_accesses::.cpu.data           518                       # number of ReadExReq accesses(hits+misses)
system.l2.ReadExReq_accesses::total               518                       # number of ReadExReq accesses(hits+misses)
system.l2.ReadExReq_miss_rate::.cpu.data     0.961390                       # miss rate for ReadExReq accesses
system.l2.ReadExReq_miss_rate::total         0.961390                       # miss rate for ReadExReq accesses
system.l2.ReadSharedReq_hits::.cpu.inst             2                       # number of ReadSharedReq hits
system.l2.ReadSharedReq_hits::.cpu.data            42                       # number of ReadSharedReq hits
system.l2.ReadSharedReq_hits::total                44                       # number of ReadSharedReq hits
system.l2.ReadSharedReq_misses::.cpu.inst         1012                       # number of ReadSharedReq misses
system.l2.ReadSharedReq_misses::.cpu.data         1925                       # number of ReadSharedReq misses
system.l2.ReadSharedReq_misses::total            2937                       # number of ReadSharedReq misses
system.l2.ReadSharedReq_accesses::.cpu.inst         1014                       # number of ReadSharedReq accesses(hits+misses)
system.l2.ReadSharedReq_accesses::.cpu.data         1967                       # number of ReadSharedReq accesses(hits+misses)
system.l2.ReadSharedReq_accesses::total          2981                       # number of ReadSharedReq accesses(hits+misses)
system.l2.ReadSharedReq_miss_rate::.cpu.inst     0.998028                       # miss rate for ReadSharedReq accesses
system.l2.ReadSharedReq_miss_rate::.cpu.data     0.978648                       # miss rate for ReadSharedReq accesses
system.l2.ReadSharedReq_miss_rate::total     0.985240                       # miss rate for ReadSharedReq accesses
system.l2.tags.pwrStateResidencyTicks::UNDEFINED 18446744073709551616                       # Cumulative time (in ticks) in various power states
system.l2.tags.tagsinuse                          inf                       # Cycle average of tags in use
system.l2.tags.total_refs                        4177                       # Total number of references to valid blocks.
system.l2.tags.sampled_refs                      3454                       # Sample count of references to valid blocks.
system.l2.tags.avg_refs                      1.209323                       # Average number of references to valid blocks.
system.l2.tags.warmup_cycle                         0                       # Cycle when the warmup percentage was hit.
system.l2.tags.occ_blocks::.writebacks            inf                       # Average occupied blocks per requestor
system.l2.tags.occ_blocks::.cpu.inst              inf                       # Average occupied blocks per requestor
system.l2.tags.occ_blocks::.cpu.data              inf                       # Average occupied blocks per requestor
system.l2.tags.occ_percent::.writebacks           inf                       # Average percentage of cache occupancy
system.l2.tags.occ_percent::.functional           nan                       # Average percentage of cache occupancy
system.l2.tags.occ_percent::.interrupt            nan                       # Average percentage of cache occupancy
system.l2.tags.occ_percent::.aes_aes_datapath          nan                       # Average percentage of cache occupancy
system.l2.tags.occ_percent::.aes_aes_datapath.system.aes_aes_datapath.spad          nan                       # Average percentage of cache occupancy
system.l2.tags.occ_percent::.aes_aes_datapath.system.aes_aes_datapath.cache          nan                       # Average percentage of cache occupancy
system.l2.tags.occ_percent::.aes_aes_datapath.system.aes_aes_datapath.acp          nan                       # Average percentage of cache occupancy
system.l2.tags.occ_percent::.cpu.dtb.walker          nan                       # Average percentage of cache occupancy
system.l2.tags.occ_percent::.cpu.itb.walker          nan                       # Average percentage of cache occupancy
system.l2.tags.occ_percent::.cpu.inst             inf                       # Average percentage of cache occupancy
system.l2.tags.occ_percent::.cpu.data             inf                       # Average percentage of cache occupancy
system.l2.tags.occ_percent::.kmp_kmp_datapath          nan                       # Average percentage of cache occupancy
system.l2.tags.occ_percent::.kmp_kmp_datapath.system.kmp_kmp_datapath.spad          nan                       # Average percentage of cache occupancy
system.l2.tags.occ_percent::.kmp_kmp_datapath.system.kmp_kmp_datapath.cache          nan                       # Average percentage of cache occupancy
system.l2.tags.occ_percent::.kmp_kmp_datapath.system.kmp_kmp_datapath.acp          nan                       # Average percentage of cache occupancy
system.l2.tags.occ_percent::total                 nan                       # Average percentage of cache occupancy
system.l2.tags.occ_task_id_blocks::1024          3317                       # Occupied blocks per task id
system.l2.tags.age_task_id_blocks_1024::4         3317                       # Occupied blocks per task id
system.l2.tags.occ_task_id_percent::1024     0.202454                       # Percentage of cache occupancy per task id
system.l2.tags.tag_accesses                      7660                       # Number of tag accesses
system.l2.tags.data_accesses                     7660                       # Number of data accesses
system.cpu_voltage_domain.voltage                   1                       # Voltage in Volts
system.mem_ctrls.pwrStateResidencyTicks::UNDEFINED 18446744073709551616                       # Cumulative time (in ticks) in various power states
system.mem_ctrls.bytes_read::.cpu.inst          64768                       # Number of bytes read from this memory
system.mem_ctrls.bytes_read::.cpu.data         155072                       # Number of bytes read from this memory
system.mem_ctrls.bytes_read::total             219840                       # Number of bytes read from this memory
system.mem_ctrls.bytes_inst_read::.cpu.inst        64768                       # Number of instructions bytes read from this memory
system.mem_ctrls.bytes_inst_read::total         64768                       # Number of instructions bytes read from this memory
system.mem_ctrls.bytes_written::.writebacks          896                       # Number of bytes written to this memory
system.mem_ctrls.bytes_written::total             896                       # Number of bytes written to this memory
system.mem_ctrls.num_reads::.cpu.inst            1012                       # Number of read requests responded to by this memory
system.mem_ctrls.num_reads::.cpu.data            2423                       # Number of read requests responded to by this memory
system.mem_ctrls.num_reads::total                3435                       # Number of read requests responded to by this memory
system.mem_ctrls.num_writes::.writebacks           14                       # Number of write requests responded to by this memory
system.mem_ctrls.num_writes::total                 14                       # Number of write requests responded to by this memory
system.mem_ctrls.bw_read::.cpu.inst                 0                       # Total read bandwidth from this memory (bytes/s)
system.mem_ctrls.bw_read::.cpu.data                 0                       # Total read bandwidth from this memory (bytes/s)
system.mem_ctrls.bw_read::total                     0                       # Total read bandwidth from this memory (bytes/s)
system.mem_ctrls.bw_inst_read::.cpu.inst            0                       # Instruction read bandwidth from this memory (bytes/s)
system.mem_ctrls.bw_inst_read::total                0                       # Instruction read bandwidth from this memory (bytes/s)
system.mem_ctrls.bw_write::.writebacks              0                       # Write bandwidth from this memory (bytes/s)
system.mem_ctrls.bw_write::total                    0                       # Write bandwidth from this memory (bytes/s)
system.mem_ctrls.bw_total::.writebacks              0                       # Total bandwidth to/from this memory (bytes/s)
system.mem_ctrls.bw_total::.cpu.inst                0                       # Total bandwidth to/from this memory (bytes/s)
system.mem_ctrls.bw_total::.cpu.data                0                       # Total bandwidth to/from this memory (bytes/s)
system.mem_ctrls.bw_total::total                    0                       # Total bandwidth to/from this memory (bytes/s)
system.mem_ctrls.priorityMinLatency      0.000000000000                       # per QoS priority minimum request to response latency (s)
system.mem_ctrls.priorityMaxLatency      0.000000000000                       # per QoS priority maximum request to response latency (s)
system.mem_ctrls.numReadWriteTurnArounds            0                       # Number of turnarounds from READ to WRITE
system.mem_ctrls.numWriteReadTurnArounds            0                       # Number of turnarounds from WRITE to READ
system.mem_ctrls.numStayReadState                   0                       # Number of times bus staying in READ state
system.mem_ctrls.numStayWriteState                  0                       # Number of times bus staying in WRITE state
system.mem_ctrls.readReqs                           0                       # Number of read requests accepted
system.mem_ctrls.writeReqs                          0                       # Number of write requests accepted
system.mem_ctrls.readBursts                         0                       # Number of DRAM read bursts, including those serviced by the write queue
system.mem_ctrls.writeBursts                        0                       # Number of DRAM write bursts, including those merged in the write queue
system.mem_ctrls.servicedByWrQ                      0                       # Number of DRAM read bursts serviced by the write queue
system.mem_ctrls.mergedWrBursts                     0                       # Number of DRAM write bursts merged with an existing one
system.mem_ctrls.neitherReadNorWriteReqs            0                       # Number of requests that are neither read nor write
system.mem_ctrls.perBankRdBursts::0                 0                       # Per bank write bursts
system.mem_ctrls.perBankRdBursts::1                 0                       # Per bank write bursts
system.mem_ctrls.perBankRdBursts::2                 0                       # Per bank write bursts
system.mem_ctrls.perBankRdBursts::3                 0                       # Per bank write bursts
system.mem_ctrls.perBankRdBursts::4                 0                       # Per bank write bursts
system.mem_ctrls.perBankRdBursts::5                 0                       # Per bank write bursts
system.mem_ctrls.perBankRdBursts::6                 0                       # Per bank write bursts
system.mem_ctrls.perBankRdBursts::7                 0                       # Per bank write bursts
system.mem_ctrls.perBankRdBursts::8                 0                       # Per bank write bursts
system.mem_ctrls.perBankRdBursts::9                 0                       # Per bank write bursts
system.mem_ctrls.perBankRdBursts::10                0                       # Per bank write bursts
system.mem_ctrls.perBankRdBursts::11                0                       # Per bank write bursts
system.mem_ctrls.perBankRdBursts::12                0                       # Per bank write bursts
system.mem_ctrls.perBankRdBursts::13                0                       # Per bank write bursts
system.mem_ctrls.perBankRdBursts::14                0                       # Per bank write bursts
system.mem_ctrls.perBankRdBursts::15                0                       # Per bank write bursts
system.mem_ctrls.perBankWrBursts::0                 0                       # Per bank write bursts
system.mem_ctrls.perBankWrBursts::1                 0                       # Per bank write bursts
system.mem_ctrls.perBankWrBursts::2                 0                       # Per bank write bursts
system.mem_ctrls.perBankWrBursts::3                 0                       # Per bank write bursts
system.mem_ctrls.perBankWrBursts::4                 0                       # Per bank write bursts
system.mem_ctrls.perBankWrBursts::5                 0                       # Per bank write bursts
system.mem_ctrls.perBankWrBursts::6                 0                       # Per bank write bursts
system.mem_ctrls.perBankWrBursts::7                 0                       # Per bank write bursts
system.mem_ctrls.perBankWrBursts::8                 0                       # Per bank write bursts
system.mem_ctrls.perBankWrBursts::9                 0                       # Per bank write bursts
[...]
system.cpu.icache.tags.occ_percent::.aes_aes_datapath          nan                       # Average percentage of cache occupancy
system.cpu.icache.tags.occ_percent::.aes_aes_datapath.system.aes_aes_datapath.spad          nan                       # Average percentage of cache occupancy
system.cpu.icache.tags.occ_percent::.aes_aes_datapath.system.aes_aes_datapath.cache          nan                       # Average percentage of cache occupancy
system.cpu.icache.tags.occ_percent::.aes_aes_datapath.system.aes_aes_datapath.acp          nan                       # Average percentage of cache occupancy
system.cpu.icache.tags.occ_percent::.cpu.dtb.walker          nan                       # Average percentage of cache occupancy
system.cpu.icache.tags.occ_percent::.cpu.itb.walker          nan                       # Average percentage of cache occupancy
system.cpu.icache.tags.occ_percent::.cpu.inst          inf                       # Average percentage of cache occupancy
system.cpu.icache.tags.occ_percent::.cpu.data          nan                       # Average percentage of cache occupancy
system.cpu.icache.tags.occ_percent::.kmp_kmp_datapath          nan                       # Average percentage of cache occupancy
system.cpu.icache.tags.occ_percent::.kmp_kmp_datapath.system.kmp_kmp_datapath.spad          nan                       # Average percentage of cache occupancy
system.cpu.icache.tags.occ_percent::.kmp_kmp_datapath.system.kmp_kmp_datapath.cache          nan                       # Average percentage of cache occupancy
system.cpu.icache.tags.occ_percent::.kmp_kmp_datapath.system.kmp_kmp_datapath.acp          nan                       # Average percentage of cache occupancy
system.cpu.icache.tags.occ_percent::total          nan                       # Average percentage of cache occupancy
system.cpu.icache.tags.occ_task_id_blocks::1024          964                       # Occupied blocks per task id
system.cpu.icache.tags.age_task_id_blocks_1024::4          964                       # Occupied blocks per task id
system.cpu.icache.tags.occ_task_id_percent::1024     0.470703                       # Percentage of cache occupancy per task id
system.cpu.icache.tags.tag_accesses            386636                       # Number of tag accesses
system.cpu.icache.tags.data_accesses           386636                       # Number of data accesses
system.cpu.dtb.walker.pwrStateResidencyTicks::UNDEFINED 18446744073709551616                       # Cumulative time (in ticks) in various power states
system.cpu.interrupts.clk_domain.clock          16000                       # Clock period in ticks
system.cpu.itb_walker_cache.pwrStateResidencyTicks::UNDEFINED 18446744073709551616                       # Cumulative time (in ticks) in various power states
system.cpu.itb_walker_cache.blocked_cycles::no_mshrs            0                       # number of cycles access was blocked
system.cpu.itb_walker_cache.blocked_cycles::no_targets            0                       # number of cycles access was blocked
system.cpu.itb_walker_cache.blocked::no_mshrs            0                       # number of cycles access was blocked
system.cpu.itb_walker_cache.blocked::no_targets            0                       # number of cycles access was blocked
system.cpu.itb_walker_cache.avg_blocked_cycles::no_mshrs          nan                       # average number of cycles each access was blocked
system.cpu.itb_walker_cache.avg_blocked_cycles::no_targets          nan                       # average number of cycles each access was blocked
system.cpu.itb_walker_cache.replacements            0                       # number of replacements
system.cpu.itb_walker_cache.tags.pwrStateResidencyTicks::UNDEFINED 18446744073709551616                       # Cumulative time (in ticks) in various power states
system.cpu.itb_walker_cache.tags.tagsinuse          nan                       # Cycle average of tags in use
system.cpu.itb_walker_cache.tags.total_refs            0                       # Total number of references to valid blocks.
system.cpu.itb_walker_cache.tags.sampled_refs            0                       # Sample count of references to valid blocks.
system.cpu.itb_walker_cache.tags.avg_refs          nan                       # Average number of references to valid blocks.
system.cpu.itb_walker_cache.tags.warmup_cycle            0                       # Cycle when the warmup percentage was hit.
system.cpu.itb_walker_cache.tags.occ_percent::.writebacks          nan                       # Average percentage of cache occupancy
system.cpu.itb_walker_cache.tags.occ_percent::.functional          nan                       # Average percentage of cache occupancy
system.cpu.itb_walker_cache.tags.occ_percent::.interrupt          nan                       # Average percentage of cache occupancy
system.cpu.itb_walker_cache.tags.occ_percent::.aes_aes_datapath          nan                       # Average percentage of cache occupancy
system.cpu.itb_walker_cache.tags.occ_percent::.aes_aes_datapath.system.aes_aes_datapath.spad          nan                       # Average percentage of cache occupancy
system.cpu.itb_walker_cache.tags.occ_percent::.aes_aes_datapath.system.aes_aes_datapath.cache          nan                       # Average percentage of cache occupancy
system.cpu.itb_walker_cache.tags.occ_percent::.aes_aes_datapath.system.aes_aes_datapath.acp          nan                       # Average percentage of cache occupancy
system.cpu.itb_walker_cache.tags.occ_percent::.cpu.dtb.walker          nan                       # Average percentage of cache occupancy
system.cpu.itb_walker_cache.tags.occ_percent::.cpu.itb.walker          nan                       # Average percentage of cache occupancy
system.cpu.itb_walker_cache.tags.occ_percent::.cpu.inst          nan                       # Average percentage of cache occupancy
system.cpu.itb_walker_cache.tags.occ_percent::.cpu.data          nan                       # Average percentage of cache occupancy
system.cpu.itb_walker_cache.tags.occ_percent::.kmp_kmp_datapath          nan                       # Average percentage of cache occupancy
system.cpu.itb_walker_cache.tags.occ_percent::.kmp_kmp_datapath.system.kmp_kmp_datapath.spad          nan                       # Average percentage of cache occupancy
system.cpu.itb_walker_cache.tags.occ_percent::.kmp_kmp_datapath.system.kmp_kmp_datapath.cache          nan                       # Average percentage of cache occupancy
system.cpu.itb_walker_cache.tags.occ_percent::.kmp_kmp_datapath.system.kmp_kmp_datapath.acp          nan                       # Average percentage of cache occupancy
system.cpu.itb_walker_cache.tags.occ_percent::total          nan                       # Average percentage of cache occupancy
system.cpu.itb_walker_cache.tags.tag_accesses            0                       # Number of tag accesses
system.cpu.itb_walker_cache.tags.data_accesses            0                       # Number of data accesses
system.cpu.itb.walker.pwrStateResidencyTicks::UNDEFINED 18446744073709551616                       # Cumulative time (in ticks) in various power states
system.cpu.dtb_walker_cache.pwrStateResidencyTicks::UNDEFINED 18446744073709551616                       # Cumulative time (in ticks) in various power states
system.cpu.dtb_walker_cache.blocked_cycles::no_mshrs            0                       # number of cycles access was blocked
system.cpu.dtb_walker_cache.blocked_cycles::no_targets            0                       # number of cycles access was blocked
system.cpu.dtb_walker_cache.blocked::no_mshrs            0                       # number of cycles access was blocked
system.cpu.dtb_walker_cache.blocked::no_targets            0                       # number of cycles access was blocked
system.cpu.dtb_walker_cache.avg_blocked_cycles::no_mshrs          nan                       # average number of cycles each access was blocked
system.cpu.dtb_walker_cache.avg_blocked_cycles::no_targets          nan                       # average number of cycles each access was blocked
system.cpu.dtb_walker_cache.replacements            0                       # number of replacements
system.cpu.dtb_walker_cache.tags.pwrStateResidencyTicks::UNDEFINED 18446744073709551616                       # Cumulative time (in ticks) in various power states
system.cpu.dtb_walker_cache.tags.tagsinuse          nan                       # Cycle average of tags in use
system.cpu.dtb_walker_cache.tags.total_refs            0                       # Total number of references to valid blocks.
system.cpu.dtb_walker_cache.tags.sampled_refs            0                       # Sample count of references to valid blocks.
system.cpu.dtb_walker_cache.tags.avg_refs          nan                       # Average number of references to valid blocks.
system.cpu.dtb_walker_cache.tags.warmup_cycle            0                       # Cycle when the warmup percentage was hit.
system.cpu.dtb_walker_cache.tags.occ_percent::.writebacks          nan                       # Average percentage of cache occupancy
system.cpu.dtb_walker_cache.tags.occ_percent::.functional          nan                       # Average percentage of cache occupancy
system.cpu.dtb_walker_cache.tags.occ_percent::.interrupt          nan                       # Average percentage of cache occupancy
system.cpu.dtb_walker_cache.tags.occ_percent::.aes_aes_datapath          nan                       # Average percentage of cache occupancy
system.cpu.dtb_walker_cache.tags.occ_percent::.aes_aes_datapath.system.aes_aes_datapath.spad          nan                       # Average percentage of cache occupancy
system.cpu.dtb_walker_cache.tags.occ_percent::.aes_aes_datapath.system.aes_aes_datapath.cache          nan                       # Average percentage of cache occupancy
system.cpu.dtb_walker_cache.tags.occ_percent::.aes_aes_datapath.system.aes_aes_datapath.acp          nan                       # Average percentage of cache occupancy
system.cpu.dtb_walker_cache.tags.occ_percent::.cpu.dtb.walker          nan                       # Average percentage of cache occupancy
system.cpu.dtb_walker_cache.tags.occ_percent::.cpu.itb.walker          nan                       # Average percentage of cache occupancy
system.cpu.dtb_walker_cache.tags.occ_percent::.cpu.inst          nan                       # Average percentage of cache occupancy
system.cpu.dtb_walker_cache.tags.occ_percent::.cpu.data          nan                       # Average percentage of cache occupancy
system.cpu.dtb_walker_cache.tags.occ_percent::.kmp_kmp_datapath          nan                       # Average percentage of cache occupancy
system.cpu.dtb_walker_cache.tags.occ_percent::.kmp_kmp_datapath.system.kmp_kmp_datapath.spad          nan                       # Average percentage of cache occupancy
system.cpu.dtb_walker_cache.tags.occ_percent::.kmp_kmp_datapath.system.kmp_kmp_datapath.cache          nan                       # Average percentage of cache occupancy
system.cpu.dtb_walker_cache.tags.occ_percent::.kmp_kmp_datapath.system.kmp_kmp_datapath.acp          nan                       # Average percentage of cache occupancy
system.cpu.dtb_walker_cache.tags.occ_percent::total          nan                       # Average percentage of cache occupancy
system.cpu.dtb_walker_cache.tags.tag_accesses            0                       # Number of tag accesses
system.cpu.dtb_walker_cache.tags.data_accesses            0                       # Number of data accesses
system.cpu.dcache.pwrStateResidencyTicks::UNDEFINED 18446744073709551616                       # Cumulative time (in ticks) in various power states
system.cpu.dcache.demand_hits::.cpu.data        46710                       # number of demand (read+write) hits
system.cpu.dcache.demand_hits::total            46710                       # number of demand (read+write) hits
system.cpu.dcache.overall_hits::.cpu.data        46710                       # number of overall hits
system.cpu.dcache.overall_hits::total           46710                       # number of overall hits
system.cpu.dcache.demand_misses::.cpu.data         2485                       # number of demand (read+write) misses
system.cpu.dcache.demand_misses::total           2485                       # number of demand (read+write) misses
system.cpu.dcache.overall_misses::.cpu.data         2485                       # number of overall misses
system.cpu.dcache.overall_misses::total          2485                       # number of overall misses
system.cpu.dcache.demand_accesses::.cpu.data        49195                       # number of demand (read+write) accesses
system.cpu.dcache.demand_accesses::total        49195                       # number of demand (read+write) accesses
system.cpu.dcache.overall_accesses::.cpu.data        49195                       # number of overall (read+write) accesses
system.cpu.dcache.overall_accesses::total        49195                       # number of overall (read+write) accesses
system.cpu.dcache.demand_miss_rate::.cpu.data     0.050513                       # miss rate for demand accesses
system.cpu.dcache.demand_miss_rate::total     0.050513                       # miss rate for demand accesses
system.cpu.dcache.overall_miss_rate::.cpu.data     0.050513                       # miss rate for overall accesses
system.cpu.dcache.overall_miss_rate::total     0.050513                       # miss rate for overall accesses
system.cpu.dcache.blocked_cycles::no_mshrs            0                       # number of cycles access was blocked
system.cpu.dcache.blocked_cycles::no_targets            0                       # number of cycles access was blocked
system.cpu.dcache.blocked::no_mshrs                 0                       # number of cycles access was blocked
system.cpu.dcache.blocked::no_targets               0                       # number of cycles access was blocked
system.cpu.dcache.avg_blocked_cycles::no_mshrs          nan                       # average number of cycles each access was blocked
system.cpu.dcache.avg_blocked_cycles::no_targets          nan                       # average number of cycles each access was blocked
system.cpu.dcache.writebacks::.writebacks          266                       # number of writebacks
system.cpu.dcache.writebacks::total               266                       # number of writebacks
system.cpu.dcache.replacements                    659                       # number of replacements
system.cpu.dcache.ReadReq_hits::.cpu.data        35158                       # number of ReadReq hits
system.cpu.dcache.ReadReq_hits::total           35158                       # number of ReadReq hits
system.cpu.dcache.ReadReq_misses::.cpu.data         1967                       # number of ReadReq misses
system.cpu.dcache.ReadReq_misses::total          1967                       # number of ReadReq misses
system.cpu.dcache.ReadReq_accesses::.cpu.data        37125                       # number of ReadReq accesses(hits+misses)
system.cpu.dcache.ReadReq_accesses::total        37125                       # number of ReadReq accesses(hits+misses)
system.cpu.dcache.ReadReq_miss_rate::.cpu.data     0.052983                       # miss rate for ReadReq accesses
system.cpu.dcache.ReadReq_miss_rate::total     0.052983                       # miss rate for ReadReq accesses
system.cpu.dcache.WriteReq_hits::.cpu.data        11552                       # number of WriteReq hits
system.cpu.dcache.WriteReq_hits::total          11552                       # number of WriteReq hits
system.cpu.dcache.WriteReq_misses::.cpu.data          518                       # number of WriteReq misses
system.cpu.dcache.WriteReq_misses::total          518                       # number of WriteReq misses
system.cpu.dcache.WriteReq_accesses::.cpu.data        12070                       # number of WriteReq accesses(hits+misses)
system.cpu.dcache.WriteReq_accesses::total        12070                       # number of WriteReq accesses(hits+misses)
system.cpu.dcache.WriteReq_miss_rate::.cpu.data     0.042916                       # miss rate for WriteReq accesses
system.cpu.dcache.WriteReq_miss_rate::total     0.042916                       # miss rate for WriteReq accesses
system.cpu.dcache.tags.pwrStateResidencyTicks::UNDEFINED 18446744073709551616                       # Cumulative time (in ticks) in various power states
system.cpu.dcache.tags.tagsinuse                  inf                       # Cycle average of tags in use
system.cpu.dcache.tags.total_refs               49195                       # Total number of references to valid blocks.
system.cpu.dcache.tags.sampled_refs              2485                       # Sample count of references to valid blocks.
system.cpu.dcache.tags.avg_refs             19.796781                       # Average number of references to valid blocks.
system.cpu.dcache.tags.warmup_cycle              3000                       # Cycle when the warmup percentage was hit.
system.cpu.dcache.tags.occ_blocks::.cpu.data          inf                       # Average occupied blocks per requestor
system.cpu.dcache.tags.occ_percent::.writebacks          nan                       # Average percentage of cache occupancy
system.cpu.dcache.tags.occ_percent::.functional          nan                       # Average percentage of cache occupancy
system.cpu.dcache.tags.occ_percent::.interrupt          nan                       # Average percentage of cache occupancy
system.cpu.dcache.tags.occ_percent::.aes_aes_datapath          nan                       # Average percentage of cache occupancy
system.cpu.dcache.tags.occ_percent::.aes_aes_datapath.system.aes_aes_datapath.spad          nan                       # Average percentage of cache occupancy
system.cpu.dcache.tags.occ_percent::.aes_aes_datapath.system.aes_aes_datapath.cache          nan                       # Average percentage of cache occupancy
system.cpu.dcache.tags.occ_percent::.aes_aes_datapath.system.aes_aes_datapath.acp          nan                       # Average percentage of cache occupancy
system.cpu.dcache.tags.occ_percent::.cpu.dtb.walker          nan                       # Average percentage of cache occupancy
system.cpu.dcache.tags.occ_percent::.cpu.itb.walker          nan                       # Average percentage of cache occupancy
system.cpu.dcache.tags.occ_percent::.cpu.inst          nan                       # Average percentage of cache occupancy
system.cpu.dcache.tags.occ_percent::.cpu.data          inf                       # Average percentage of cache occupancy
system.cpu.dcache.tags.occ_percent::.kmp_kmp_datapath          nan                       # Average percentage of cache occupancy
system.cpu.dcache.tags.occ_percent::.kmp_kmp_datapath.system.kmp_kmp_datapath.spad          nan                       # Average percentage of cache occupancy
system.cpu.dcache.tags.occ_percent::.kmp_kmp_datapath.system.kmp_kmp_datapath.cache          nan                       # Average percentage of cache occupancy
system.cpu.dcache.tags.occ_percent::.kmp_kmp_datapath.system.kmp_kmp_datapath.acp          nan                       # Average percentage of cache occupancy
system.cpu.dcache.tags.occ_percent::total          nan                       # Average percentage of cache occupancy
system.cpu.dcache.tags.occ_task_id_blocks::1024         1826                       # Occupied blocks per task id
system.cpu.dcache.tags.age_task_id_blocks_1024::4         1826                       # Occupied blocks per task id
system.cpu.dcache.tags.occ_task_id_percent::1024     0.891602                       # Percentage of cache occupancy per task id
system.cpu.dcache.tags.tag_accesses            100875                       # Number of tag accesses
system.cpu.dcache.tags.data_accesses           100875                       # Number of data accesses

---------- End Simulation Statistics   ----------
